28
Atoms
C 4.491988 1.098985 6.131986
C 4.455365 2.030434 5.250217
C 4.588402 1.799055 3.850948
N 4.683322 1.581519 2.731673
H 4.397068 1.258511 7.055545
H 4.808138 0.170831 5.746125
H 4.299906 2.873551 5.565035
C 7.991988 2.130534 2.903937
C 7.955365 1.199085 3.785706
C 8.088402 1.430464 5.184975
N 8.183322 1.648000 6.304250
H 7.897068 1.971008 1.980378
H 8.308138 3.058688 3.289798
H 7.799906 0.355968 3.470888
C 4.491988 5.650534 2.903937
C 4.455365 4.719085 3.785706
C 4.588402 4.950464 5.184975
N 4.683322 5.168000 6.304250
H 4.397068 5.491008 1.980378
H 4.808138 6.578688 3.289798
H 4.299906 3.875968 3.470888
C 7.991988 4.618985 6.131986
C 7.955365 5.550434 5.250217
C 8.088402 5.319055 3.850948
N 8.183322 5.101519 2.731673
H 7.897068 4.778511 7.055545
H 8.308138 3.690831 5.746125
H 7.799906 6.393551 5.565035
