28
Atoms
C 4.621174 2.130534 6.131986
C 4.657797 1.199085 5.250217
C 4.524760 1.430464 3.850948
N 4.429840 1.648000 2.731673
H 4.716094 1.971008 7.055545
H 4.305024 3.058688 5.746125
H 4.813256 0.355968 5.565035
C 8.121174 0.869466 0.868014
C 8.157797 1.800915 1.749783
C 8.024760 1.569536 3.149052
N 7.929840 1.352000 4.268327
H 8.216094 1.028992 -0.055545
H 7.805024 -0.058688 1.253875
H 8.313256 2.644032 1.434965
C 8.121174 5.630534 6.131986
C 8.157797 4.699085 5.250217
C 8.024760 4.930464 3.850948
N 7.929840 5.148000 2.731673
H 8.216094 5.471008 7.055545
H 7.805024 6.558688 5.746125
H 8.313256 3.855968 5.565035
C 4.621174 4.369466 0.868014
C 4.657797 5.300915 1.749783
C 4.524760 5.069536 3.149052
N 4.429840 4.852000 4.268327
H 4.716094 4.528992 -0.055545
H 4.305024 3.441312 1.253875
H 4.813256 6.144032 1.434965
